Circuit: * C:\Users\Compustore\Documents\Universidad de Cuenca\Teoría de Antenas\Efecto dopler\cdm324_backpack-master\simus\Draft2.asc

Direct Newton iteration failed to find .op point.  (Use ".option noopiter" to skip.)
Starting Gmin stepping
Gmin = 10
Gmin = 1.07374
Gmin = 0.115292
Gmin = 0.0123794
Gmin = 0.00132923
Gmin = 0.000142725
Gmin = 1.5325e-005
Gmin = 1.6455e-006
Gmin = 1.76685e-007
Gmin = 1.89714e-008
Gmin = 2.03704e-009
Gmin = 2.18725e-010
Gmin = 2.34854e-011
Gmin = 2.52173e-012
Gmin = 2.70769e-013
Gmin = 0
Gmin stepping succeeded in finding the operating point.

Heightened Def Con from 0.00612296 to 0.00612296

Date: Sun Oct 16 22:39:15 2022
Total elapsed time: 88.730 seconds.

tnom = 27
temp = 27
method = modified trap
totiter = 5934113
traniter = 5933703
tranpoints = 2523789
accept = 1710393
rejected = 813397
matrix size = 22
fillins = 34
solver = Normal
Thread vector: 12.5/5.9[2] 4.9/10.2[1] 0.8/1.3[1] 0.3/1.3[1]  2592/500
Matrix Compiler1: 2.45 KB object code size  1.6/1.0/[0.6]
Matrix Compiler2: off  [0.2]/0.3/1.5

