Circuit: * C:\Users\Compustore\Documents\Universidad de Cuenca\Teoría de Antenas\Efecto dopler\cdm324_backpack-master\simus\transiente_limpkin.asc

WARNING: Node N010 is floating.

WARNING: Less than two connections to node N010.  This node is used by C6.
Direct Newton iteration failed to find .op point.  (Use ".option noopiter" to skip.)
Starting Gmin stepping
Gmin = 10
Gmin = 1.07374
Gmin = 0.115292
Gmin = 0.0123794
Gmin = 0.00132923
Gmin = 0.000142725
Gmin = 1.5325e-005
Gmin = 1.6455e-006
Gmin = 1.76685e-007
Gmin = 1.89714e-008
Gmin = 2.03704e-009
Gmin = 2.18725e-010
Gmin = 2.34854e-011
Gmin = 2.52173e-012
Gmin = 2.70769e-013
Gmin = 0
Gmin stepping succeeded in finding the operating point.


Date: Tue Nov 08 11:57:06 2022
Total elapsed time: 0.393 seconds.

tnom = 27
temp = 27
method = modified trap
totiter = 25766
traniter = 25338
tranpoints = 7322
accept = 5588
rejected = 1734
matrix size = 31
fillins = 39
solver = Normal
Thread vector: 41.9/6.5[3] 3.9/3.1[3] 1.1/1.2[1] 0.2/1.0[1]  2592/500
Matrix Compiler1: 3.18 KB object code size  3.5/0.9/[0.3]
Matrix Compiler2: off  [0.3]/0.6/0.5

